6274 'GENROU' 1 3.59 0.05 0.07 2.75 0.0 2.25 2.09 0.57 0.5 0.39 0.09 0.42 0.0 1.0 /