    101 'GENROU' 7     8.0000      0.50000       1.0000      0.50000E-01
          3.9398       0.0000       1.4000       1.3500      0.30000
         0.60000      0.20000      0.10000      0.30000E-01  0.40000      /
    101 'SEXS'   7    0.10000       10.000       100.00      0.10000
         -4.0000       5.0000      /
    104 'GENROU' 6     8.0000      0.50000       1.0000      0.50000E-01
          3.9398       0.0000       1.4000       1.3500      0.30000
         0.60000      0.20000      0.10000      0.30000E-01  0.40000      /
    104 'SEXS'   6    0.10000       10.000       100.00      0.10000
         -4.0000       5.0000      /
    104 'GAST'   6    0.50000E-01  0.50000E-01  0.10000       2.0000
          1.0000       2.0000       1.0500      0.20000       0.0000      /
    111 'GENROU' 1     8.0000      0.50000       1.0000      0.50000E-01
          3.9398       0.0000       1.4000       1.3500      0.30000
         0.60000      0.20000      0.10000      0.30000E-01  0.40000      /
    111 'SEXS'   1    0.10000       10.000       100.00      0.10000
         -4.0000       5.0000      /
    112 'GENROU' 2     8.0000      0.50000       1.0000      0.50000E-01
          3.9398       0.0000       1.4000       1.3500      0.30000
         0.60000      0.20000      0.10000      0.30000E-01  0.40000      /
    112 'SEXS'   2    0.10000       10.000       100.00      0.10000
         -4.0000       5.0000      /
    113 'GENROU' 1     8.0000      0.50000       1.0000      0.50000E-01
          3.9398       0.0000       1.4000       1.3500      0.30000
         0.60000      0.20000      0.10000      0.30000E-01  0.40000      /
    113 'SEXS'   1    0.10000       10.000       100.00      0.10000
         -4.0000       5.0000      /
    115 'GENROU' 1     8.0000      0.50000       1.0000      0.50000E-01
          3.9398       0.0000       1.4000       1.3500      0.30000
         0.60000      0.20000      0.10000      0.30000E-01  0.40000      /
    115 'SEXS'   1    0.10000       10.000       100.00      0.10000
         -4.0000       5.0000      /
    115 'TGOV1'  1    0.50000E-01  0.50000E-01   1.0500      0.20000E-01
         0.10000       2.0000       0.0000      /
    116 'GENROU' 2     8.0000      0.50000       1.0000      0.50000E-01
          3.9398       0.0000       1.4000       1.3500      0.30000
         0.60000      0.20000      0.10000      0.30000E-01  0.40000      /
    116 'SEXS'   2    0.10000       10.000       100.00      0.10000
         -4.0000       5.0000      /
    117 'GENROU' 1     8.0000      0.50000       1.0000      0.50000E-01
          3.9398       0.0000       1.4000       1.3500      0.30000
         0.60000      0.20000      0.10000      0.30000E-01  0.40000      /
    117 'SEXS'   1    0.10000       10.000       100.00      0.10000
         -4.0000       5.0000      /
    117 'GAST'   1    0.50000E-01  0.50000E-01  0.10000       2.0000
          1.0000       2.0000       1.0500      0.20000       0.0000      /
    120 'GENROU' 5     8.0000      0.50000       1.0000      0.50000E-01
          3.9398       0.0000       1.4000       1.3500      0.30000
         0.60000      0.20000      0.10000      0.30000E-01  0.40000      /
    120 'SEXS'   5    0.10000       10.000       100.00      0.10000
         -4.0000       5.0000      /
    123 'GENROU' 1     8.0000      0.50000       1.0000      0.50000E-01
          3.9398       0.0000       1.4000       1.3500      0.30000
         0.60000      0.20000      0.10000      0.30000E-01  0.40000      /
    123 'SEXS'   1    0.10000       10.000       100.00      0.10000
         -4.0000       5.0000      /
    128 'GENROU' 1     8.0000      0.50000       1.0000      0.50000E-01
          3.9398       0.0000       1.4000       1.3500      0.30000
         0.60000      0.20000      0.10000      0.30000E-01  0.40000      /
    128 'SEXS'   1    0.10000       10.000       100.00      0.10000
         -4.0000       5.0000      /
    128 'GAST'   1    0.50000E-01  0.50000E-01  0.10000       2.0000
          1.0000       2.0000       1.0500      0.20000       0.0000      /
    131 'GENROU' 1     8.0000      0.50000       1.0000      0.50000E-01
          3.9398       0.0000       1.4000       1.3500      0.30000
         0.60000      0.20000      0.10000      0.30000E-01  0.40000      /
    131 'SEXS'   1    0.10000       10.000       100.00      0.10000
         -4.0000       5.0000      /
    137 'GENROU' 1     8.0000      0.50000       1.0000      0.50000E-01
          3.9398       0.0000       1.4000       1.3500      0.30000
         0.60000      0.20000      0.10000      0.30000E-01  0.40000      /
    137 'SEXS'   1    0.10000       10.000       100.00      0.10000
         -4.0000       5.0000      /
    140 'GENROU' 1     8.0000      0.50000       1.0000      0.50000E-01
          3.9398       0.0000       1.4000       1.3500      0.30000
         0.60000      0.20000      0.10000      0.30000E-01  0.40000      /
    140 'SEXS'   1    0.10000       10.000       100.00      0.10000
         -4.0000       5.0000      /
    141 'GENROU' 1     8.0000      0.50000       1.0000      0.50000E-01
          3.9398       0.0000       1.4000       1.3500      0.30000
         0.60000      0.20000      0.10000      0.30000E-01  0.40000      /
    141 'SEXS'   1    0.10000       10.000       100.00      0.10000
         -4.0000       5.0000      /
    142 'GENROU' 1     8.0000      0.50000       1.0000      0.50000E-01
          3.9398       0.0000       1.4000       1.3500      0.30000
         0.60000      0.20000      0.10000      0.30000E-01  0.40000      /
    142 'SEXS'   1    0.10000       10.000       100.00      0.10000
         -4.0000       5.0000      /
    142 'GAST'   1    0.50000E-01  0.50000E-01  0.10000       2.0000
          1.0000       2.0000       1.0500      0.20000       0.0000      /
    143 'GENROU' 1     8.0000      0.50000       1.0000      0.50000E-01
          3.9398       0.0000       1.4000       1.3500      0.30000
         0.60000      0.20000      0.10000      0.30000E-01  0.40000      /
    143 'SEXS'   1    0.10000       10.000       100.00      0.10000
         -4.0000       5.0000      /
    163 'GENROU' 1     8.0000      0.50000       1.0000      0.50000E-01
          3.9398       0.0000       1.4000       1.3500      0.30000
         0.60000      0.20000      0.10000      0.30000E-01  0.40000      /
    163 'SEXS'   1    0.10000       10.000       100.00      0.10000
         -4.0000       5.0000      /
    177 'GENROU' 2     8.0000      0.50000       1.0000      0.50000E-01
          3.9398       0.0000       1.4000       1.3500      0.30000
         0.60000      0.20000      0.10000      0.30000E-01  0.40000      /
    177 'SEXS'   2    0.10000       10.000       100.00      0.10000
         -4.0000       5.0000      /
    201 'GENROU' 1     8.0000      0.50000       1.0000      0.50000E-01
          3.9398       0.0000       1.4000       1.3500      0.30000
         0.60000      0.20000      0.10000      0.30000E-01  0.40000      /
    201 'SEXS'   1    0.10000       10.000       100.00      0.10000
         -4.0000       5.0000      /
    202 'GENROU' 1     8.0000      0.50000       1.0000      0.50000E-01
          3.9398       0.0000       1.4000       1.3500      0.30000
         0.60000      0.20000      0.10000      0.30000E-01  0.40000      /
    202 'SEXS'   1    0.10000       10.000       100.00      0.10000
         -4.0000       5.0000      /
    202 'TGOV1'  1    0.50000E-01  0.50000E-01   1.0500      0.20000E-01
         0.10000       2.0000       0.0000      /
    203 'GENROU' 1     8.0000      0.50000       1.0000      0.50000E-01
          3.9398       0.0000       1.4000       1.3500      0.30000
         0.60000      0.20000      0.10000      0.30000E-01  0.40000      /
    203 'SEXS'   1    0.10000       10.000       100.00      0.10000
         -4.0000       5.0000      /
    204 'GENROU' 1     8.0000      0.50000       1.0000      0.50000E-01
          3.9398       0.0000       1.4000       1.3500      0.30000
         0.60000      0.20000      0.10000      0.30000E-01  0.40000      /
    204 'SEXS'   1    0.10000       10.000       100.00      0.10000
         -4.0000       5.0000      /
    206 'GENROU' 1     8.0000      0.50000       1.0000      0.50000E-01
          3.9398       0.0000       1.4000       1.3500      0.30000
         0.60000      0.20000      0.10000      0.30000E-01  0.40000      /
    206 'SEXS'   1    0.10000       10.000       100.00      0.10000
         -4.0000       5.0000      /
    207 'GENROU' 1     8.0000      0.50000       1.0000      0.50000E-01
          3.9398       0.0000       1.4000       1.3500      0.30000
         0.60000      0.20000      0.10000      0.30000E-01  0.40000      /
    207 'SEXS'   1    0.10000       10.000       100.00      0.10000
         -4.0000       5.0000      /
    207 'GAST'   1    0.50000E-01  0.50000E-01  0.10000       2.0000
          1.0000       2.0000       1.0500      0.20000       0.0000      /
    208 'GENROU' 1     8.0000      0.50000       1.0000      0.50000E-01
          3.9398       0.0000       1.4000       1.3500      0.30000
         0.60000      0.20000      0.10000      0.30000E-01  0.40000      /
    208 'SEXS'   1    0.10000       10.000       100.00      0.10000
         -4.0000       5.0000      /
    209 'GENROU' 1     8.0000      0.50000       1.0000      0.50000E-01
          3.9398       0.0000       1.4000       1.3500      0.30000
         0.60000      0.20000      0.10000      0.30000E-01  0.40000      /
    209 'SEXS'   1    0.10000       10.000       100.00      0.10000
         -4.0000       5.0000      /
    212 'GENROU' 1     8.0000      0.50000       1.0000      0.50000E-01
          3.9398       0.0000       1.4000       1.3500      0.30000
         0.60000      0.20000      0.10000      0.30000E-01  0.40000      /
    212 'SEXS'   1    0.10000       10.000       100.00      0.10000
         -4.0000       5.0000      /
    213 'GENROU' 3     8.0000      0.50000       1.0000      0.50000E-01
          3.9398       0.0000       1.4000       1.3500      0.30000
         0.60000      0.20000      0.10000      0.30000E-01  0.40000      /
    213 'SEXS'   3    0.10000       10.000       100.00      0.10000
         -4.0000       5.0000      /
    216 'GENROU' 3     8.0000      0.50000       1.0000      0.50000E-01
          3.9398       0.0000       1.4000       1.3500      0.30000
         0.60000      0.20000      0.10000      0.30000E-01  0.40000      /
    216 'SEXS'   3    0.10000       10.000       100.00      0.10000
         -4.0000       5.0000      /
    216 'GAST'   3    0.50000E-01  0.50000E-01  0.10000       2.0000
          1.0000       2.0000       1.0500      0.20000       0.0000      /
    220 'GENROU' 1     8.0000      0.50000       1.0000      0.50000E-01
          3.9398       0.0000       1.4000       1.3500      0.30000
         0.60000      0.20000      0.10000      0.30000E-01  0.40000      /
    220 'SEXS'   1    0.10000       10.000       100.00      0.10000
         -4.0000       5.0000      /
    234 'GENROU' 2     8.0000      0.50000       1.0000      0.50000E-01
          3.9398       0.0000       1.4000       1.3500      0.30000
         0.60000      0.20000      0.10000      0.30000E-01  0.40000      /
    234 'SEXS'   2    0.10000       10.000       100.00      0.10000
         -4.0000       5.0000      /
    239 'GENROU' 3     8.0000      0.50000       1.0000      0.50000E-01
          3.9398       0.0000       1.4000       1.3500      0.30000
         0.60000      0.20000      0.10000      0.30000E-01  0.40000      /
    239 'SEXS'   3    0.10000       10.000       100.00      0.10000
         -4.0000       5.0000      /
    239 'GAST'   3    0.50000E-01  0.50000E-01  0.10000       2.0000
          1.0000       2.0000       1.0500      0.20000       0.0000      /
    300 'GENROU' 2     8.0000      0.50000       1.0000      0.50000E-01
          3.9398       0.0000       1.4000       1.3500      0.30000
         0.60000      0.20000      0.10000      0.30000E-01  0.40000      /
    300 'SEXS'   2    0.10000       10.000       100.00      0.10000
         -4.0000       5.0000      /
    303 'GENROU' 3     8.0000      0.50000       1.0000      0.50000E-01
          3.9398       0.0000       1.4000       1.3500      0.30000
         0.60000      0.20000      0.10000      0.30000E-01  0.40000      /
    303 'SEXS'   3    0.10000       10.000       100.00      0.10000
         -4.0000       5.0000      /
    306 'GENROU' 2     8.0000      0.50000       1.0000      0.50000E-01
          3.9398       0.0000       1.4000       1.3500      0.30000
         0.60000      0.20000      0.10000      0.30000E-01  0.40000      /
    306 'SEXS'   2    0.10000       10.000       100.00      0.10000
         -4.0000       5.0000      /
    307 'GENROU' 1     8.0000      0.50000       1.0000      0.50000E-01
          3.9398       0.0000       1.4000       1.3500      0.30000
         0.60000      0.20000      0.10000      0.30000E-01  0.40000      /
    307 'SEXS'   1    0.10000       10.000       100.00      0.10000
         -4.0000       5.0000      /
    308 'GENROU' 1     8.0000      0.50000       1.0000      0.50000E-01
          3.9398       0.0000       1.4000       1.3500      0.30000
         0.60000      0.20000      0.10000      0.30000E-01  0.40000      /
    308 'SEXS'   1    0.10000       10.000       100.00      0.10000
         -4.0000       5.0000      /
    309 'GENROU' 4     8.0000      0.50000       1.0000      0.50000E-01
          3.9398       0.0000       1.4000       1.3500      0.30000
         0.60000      0.20000      0.10000      0.30000E-01  0.40000      /
    309 'SEXS'   4    0.10000       10.000       100.00      0.10000
         -4.0000       5.0000      /
    315 'GENROU' 1     8.0000      0.50000       1.0000      0.50000E-01
          3.9398       0.0000       1.4000       1.3500      0.30000
         0.60000      0.20000      0.10000      0.30000E-01  0.40000      /
    315 'SEXS'   1    0.10000       10.000       100.00      0.10000
         -4.0000       5.0000      /
    317 'GENROU' 1     8.0000      0.50000       1.0000      0.50000E-01
          3.9398       0.0000       1.4000       1.3500      0.30000
         0.60000      0.20000      0.10000      0.30000E-01  0.40000      /
    317 'SEXS'   1    0.10000       10.000       100.00      0.10000
         -4.0000       5.0000      /
    317 'TGOV1'  1    0.50000E-01  0.50000E-01   1.0500      0.20000E-01
         0.10000       2.0000       0.0000      /
    321 'GENROU' 1     8.0000      0.50000       1.0000      0.50000E-01
          3.9398       0.0000       1.4000       1.3500      0.30000
         0.60000      0.20000      0.10000      0.30000E-01  0.40000      /
    321 'SEXS'   1    0.10000       10.000       100.00      0.10000
         -4.0000       5.0000      /
    327 'GENROU' 1     8.0000      0.50000       1.0000      0.50000E-01
          3.9398       0.0000       1.4000       1.3500      0.30000
         0.60000      0.20000      0.10000      0.30000E-01  0.40000      /
    327 'SEXS'   1    0.10000       10.000       100.00      0.10000
         -4.0000       5.0000      /
    330 'GENROU' 3     8.0000      0.50000       1.0000      0.50000E-01
          3.9398       0.0000       1.4000       1.3500      0.30000
         0.60000      0.20000      0.10000      0.30000E-01  0.40000      /
    330 'SEXS'   3    0.10000       10.000       100.00      0.10000
         -4.0000       5.0000      /
    332 'GENROU' 1     8.0000      0.50000       1.0000      0.50000E-01
          3.9398       0.0000       1.4000       1.3500      0.30000
         0.60000      0.20000      0.10000      0.30000E-01  0.40000      /
    332 'SEXS'   1    0.10000       10.000       100.00      0.10000
         -4.0000       5.0000      /
    335 'GENROU' 1     8.0000      0.50000       1.0000      0.50000E-01
          3.9398       0.0000       1.4000       1.3500      0.30000
         0.60000      0.20000      0.10000      0.30000E-01  0.40000      /
    335 'SEXS'   1    0.10000       10.000       100.00      0.10000
         -4.0000       5.0000      /
    335 'TGOV1'  1    0.50000E-01  0.50000E-01   1.0500      0.20000E-01
         0.10000       2.0000       0.0000      /
    352 'GENROU' 2     8.0000      0.50000       1.0000      0.50000E-01
          3.9398       0.0000       1.4000       1.3500      0.30000
         0.60000      0.20000      0.10000      0.30000E-01  0.40000      /
    352 'SEXS'   2    0.10000       10.000       100.00      0.10000
         -4.0000       5.0000      /
    354 'GENROU' 1     8.0000      0.50000       1.0000      0.50000E-01
          3.9398       0.0000       1.4000       1.3500      0.30000
         0.60000      0.20000      0.10000      0.30000E-01  0.40000      /
    354 'SEXS'   1    0.10000       10.000       100.00      0.10000
         -4.0000       5.0000      /
    354 'GENROU' 2     8.0000      0.50000       1.0000      0.50000E-01
          3.9398       0.0000       1.4000       1.3500      0.30000
         0.60000      0.20000      0.10000      0.30000E-01  0.40000      /
    354 'SEXS'   2    0.10000       10.000       100.00      0.10000
         -4.0000       5.0000      /
    354 'GENROU' 4     8.0000      0.50000       1.0000      0.50000E-01
          3.9398       0.0000       1.4000       1.3500      0.30000
         0.60000      0.20000      0.10000      0.30000E-01  0.40000      /
    354 'SEXS'   4    0.10000       10.000       100.00      0.10000
         -4.0000       5.0000      /
    407 'GENROU' 1     8.0000      0.50000       1.0000      0.50000E-01
          3.9398       0.0000       1.4000       1.3500      0.30000
         0.60000      0.20000      0.10000      0.30000E-01  0.40000      /
    407 'SEXS'   1    0.10000       10.000       100.00      0.10000
         -4.0000       5.0000      /
    407 'GENROU' 2     8.0000      0.50000       1.0000      0.50000E-01
          3.9398       0.0000       1.4000       1.3500      0.30000
         0.60000      0.20000      0.10000      0.30000E-01  0.40000      /
    407 'SEXS'   2    0.10000       10.000       100.00      0.10000
         -4.0000       5.0000      /
    407 'GAST'   2    0.50000E-01  0.50000E-01  0.10000       2.0000
          1.0000       2.0000       1.0500      0.20000       0.0000      /
    411 'GENROU' 1     8.0000      0.50000       1.0000      0.50000E-01
          3.9398       0.0000       1.4000       1.3500      0.30000
         0.60000      0.20000      0.10000      0.30000E-01  0.40000      /
    411 'SEXS'   1    0.10000       10.000       100.00      0.10000
         -4.0000       5.0000      /
    411 'GENROU' 2     8.0000      0.50000       1.0000      0.50000E-01
          3.9398       0.0000       1.4000       1.3500      0.30000
         0.60000      0.20000      0.10000      0.30000E-01  0.40000      /
    411 'SEXS'   2    0.10000       10.000       100.00      0.10000
         -4.0000       5.0000      /
    413 'GENROU' 1     8.0000      0.50000       1.0000      0.50000E-01
          3.9398       0.0000       1.4000       1.3500      0.30000
         0.60000      0.20000      0.10000      0.30000E-01  0.40000      /
    413 'SEXS'   1    0.10000       10.000       100.00      0.10000
         -4.0000       5.0000      /
    413 'GENROU' 2     8.0000      0.50000       1.0000      0.50000E-01
          3.9398       0.0000       1.4000       1.3500      0.30000
         0.60000      0.20000      0.10000      0.30000E-01  0.40000      /
    413 'SEXS'   2    0.10000       10.000       100.00      0.10000
         -4.0000       5.0000      /
    413 'GAST'   2    0.50000E-01  0.50000E-01  0.10000       2.0000
          1.0000       2.0000       1.0500      0.20000       0.0000      /
    415 'GENROU' 1     8.0000      0.50000       1.0000      0.50000E-01
          3.9398       0.0000       1.4000       1.3500      0.30000
         0.60000      0.20000      0.10000      0.30000E-01  0.40000      /
    415 'SEXS'   1    0.10000       10.000       100.00      0.10000
         -4.0000       5.0000      /
    417 'GENROU' 1     8.0000      0.50000       1.0000      0.50000E-01
          3.9398       0.0000       1.4000       1.3500      0.30000
         0.60000      0.20000      0.10000      0.30000E-01  0.40000      /
    417 'SEXS'   1    0.10000       10.000       100.00      0.10000
         -4.0000       5.0000      /
    417 'GENROU' 2     8.0000      0.50000       1.0000      0.50000E-01
          3.9398       0.0000       1.4000       1.3500      0.30000
         0.60000      0.20000      0.10000      0.30000E-01  0.40000      /
    417 'SEXS'   2    0.10000       10.000       100.00      0.10000
         -4.0000       5.0000      /
    419 'GENROU' 1     8.0000      0.50000       1.0000      0.50000E-01
          3.9398       0.0000       1.4000       1.3500      0.30000
         0.60000      0.20000      0.10000      0.30000E-01  0.40000      /
    419 'SEXS'   1    0.10000       10.000       100.00      0.10000
         -4.0000       5.0000      /
    421 'GENROU' 1     8.0000      0.50000       1.0000      0.50000E-01
          3.9398       0.0000       1.4000       1.3500      0.30000
         0.60000      0.20000      0.10000      0.30000E-01  0.40000      /
    421 'SEXS'   1    0.10000       10.000       100.00      0.10000
         -5.0000       5.0000      /
    421 'GAST'   1    0.50000E-01  0.50000E-01  0.10000       2.0000
          1.0000       2.0000       1.0500      0.20000       0.0000      /
    443 'GENROU' 3     8.0000      0.50000       1.0000      0.50000E-01
          3.9398       0.0000       1.4000       1.3500      0.30000
         0.60000      0.20000      0.10000      0.30000E-01  0.40000      /
    443 'SEXS'   3    0.10000       10.000       100.00      0.10000
         -4.0000       5.0000      /
    509 'GENROU' 1     8.0000      0.50000       1.0000      0.50000E-01
          3.9398       0.0000       1.4000       1.3500      0.30000
         0.60000      0.20000      0.10000      0.30000E-01  0.40000      /
    509 'SEXS'   1    0.10000       10.000       100.00      0.10000
         -4.0000       5.0000      /
    511 'GENROU' 2     8.0000      0.50000       1.0000      0.50000E-01
          3.9398       0.0000       1.4000       1.3500      0.30000
         0.60000      0.20000      0.10000      0.30000E-01  0.40000      /
    511 'SEXS'   2    0.10000       10.000       100.00      0.10000
         -4.0000       5.0000      /
    513 'GENROU' 1     8.0000      0.50000       1.0000      0.50000E-01
          3.9398       0.0000       1.4000       1.3500      0.30000
         0.60000      0.20000      0.10000      0.30000E-01  0.40000      /
    513 'SEXS'   1    0.10000       10.000       100.00      0.10000
         -4.0000       5.0000      /
    520 'GENROU' 1     8.0000      0.50000       1.0000      0.50000E-01
          3.9398       0.0000       1.4000       1.3500      0.30000
         0.60000      0.20000      0.10000      0.30000E-01  0.40000      /
    520 'SEXS'   1    0.10000       10.000       100.00      0.10000
         -4.0000       5.0000      /
    521 'GENROU' 1     8.0000      0.50000       1.0000      0.50000E-01
          3.9398       0.0000       1.4000       1.3500      0.30000
         0.60000      0.20000      0.10000      0.30000E-01  0.40000      /
    521 'SEXS'   1    0.10000       10.000       100.00      0.10000
         -4.0000       5.0000      /
    521 'TGOV1'  1    0.50000E-01  0.50000E-01   1.0500      0.20000E-01
         0.10000       2.0000       0.0000      /
    525 'GENROU' 1     8.0000      0.50000       1.0000      0.50000E-01
          3.9398       0.0000       1.4000       1.3500      0.30000
         0.60000      0.20000      0.10000      0.30000E-01  0.40000      /
    525 'SEXS'   1    0.10000       10.000       100.00      0.10000
         -4.0000       5.0000      /
    529 'GENROU' 1     8.0000      0.50000       1.0000      0.50000E-01
          3.9398       0.0000       1.4000       1.3500      0.30000
         0.60000      0.20000      0.10000      0.30000E-01  0.40000      /
    529 'SEXS'   1    0.10000       10.000       100.00      0.10000
         -4.0000       5.0000      /
    532 'GENROU' 1     8.0000      0.50000       1.0000      0.50000E-01
          3.9398       0.0000       1.4000       1.3500      0.30000
         0.60000      0.20000      0.10000      0.30000E-01  0.40000      /
    532 'SEXS'   1    0.10000       10.000       100.00      0.10000
         -4.0000       5.0000      /
    538 'GENROU' 2     8.0000      0.50000       1.0000      0.50000E-01
          3.9398       0.0000       1.4000       1.3500      0.30000
         0.60000      0.20000      0.10000      0.30000E-01  0.40000      /
    538 'SEXS'   2    0.10000       10.000       100.00      0.10000
         -4.0000       5.0000      /
