@!IC, SBASE,REV,XFRRAT,NXFRAT,BASFRQ
0,   100.00, 34,     0,     1, 60.00     / PSS(R)E-34.9    SAT, MAR 16 2024  15:56


GENERAL, THRSHZ=0.0001, PQBRAK=0.7, BLOWUP=5.0
GAUSS, ITMX=100, ACCP=1.6, ACCQ=1.6, ACCM=1.0, TOL=0.0001
NEWTON, ITMXN=20, ACCN=1.0, TOLN=0.1, VCTOLQ=0.1, VCTOLV=0.00001, DVLIM=0.99, NDVFCT=0.99
ADJUST, ADJTHR=0.005, ACCTAP=1.0, TAPLIM=0.05, SWVBND=100.0, MXTPSS=99, MXSWIM=10
TYSL, ITMXTY=20, ACCTY=1.0, TOLTY=0.00001
SOLVER, FNSL, ACTAPS=0, AREAIN=0, PHSHFT=0, DCTAPS=1, SWSHNT=1, FLATST=0, VARLIM=0, NONDIV=0
RATING, 1, "RATE1 ", "RATING SET 1                    "
RATING, 2, "RATE2 ", "RATING SET 2                    "
RATING, 3, "RATE3 ", "RATING SET 3                    "
RATING, 4, "RATE4 ", "RATING SET 4                    "
RATING, 5, "RATE5 ", "RATING SET 5                    "
RATING, 6, "RATE6 ", "RATING SET 6                    "
RATING, 7, "RATE7 ", "RATING SET 7                    "
RATING, 8, "RATE8 ", "RATING SET 8                    "
RATING, 9, "RATE9 ", "RATING SET 9                    "
RATING,10, "RATE10", "RATING SET 10                   "
RATING,11, "RATE11", "RATING SET 11                   "
RATING,12, "RATE12", "RATING SET 12                   "
0 / END OF SYSTEM-WIDE DATA, BEGIN BUS DATA
@!   I,'NAME        ', BASKV, IDE,AREA,ZONE,OWNER, VM,        VA,    NVHI,   NVLO,   EVHI,   EVLO
   101,'RABIGH IWSPP',  13.8000,2, 100,   1,   1,0.99442,  20.0975,1.05000,0.95000,1.10000,0.90000
   102,'DHAHBAN     ',  33.0000,1, 100,   1,   1,0.97195,  -2.9152,1.05000,0.95000,1.10000,0.90000
   103,'MAHD ALDAHAB',  33.0000,1, 100,   1,   1,0.99670,  -6.3822,1.05000,0.95000,1.10000,0.90000
   104,'RABIGH P/P  ',  13.8000,2, 100,   1,   1,0.99442,  20.0975,1.05000,0.95000,1.10000,0.90000
   105,'ALSHFA      ',  33.0000,1, 100,   1,   1,0.97211,  -2.1094,1.05000,0.95000,1.10000,0.90000
   106,'MADINAH     ',  33.0000,1, 100,   1,   1,0.97241,   1.1309,1.05000,0.95000,1.10000,0.90000
   107,'MAKKAH      ', 132.0000,1, 100,   1,   1,1.02300,   3.1903,1.05000,0.95000,1.10000,0.90000
   108,'MAHD ALDAHAB',  33.0000,1, 100,   1,   1,1.02942,  -5.1439,1.05000,0.95000,1.10000,0.90000
   109,'KHAIBAR     ',  33.0000,1, 100,   1,   1,0.99040,   6.3499,1.05000,0.95000,1.10000,0.90000
   110,'TAIF        ', 132.0000,1, 100,   1,   1,1.02000,  -4.5026,1.05000,0.95000,1.10000,0.90000
   111,'MADINAH PP2 ',  13.8000,2, 100,   1,   1,1.02000,  22.5170,1.05000,0.95000,1.10000,0.90000
   112,'TAIF        ',  13.8000,2, 100,   1,   1,0.99924,   0.9410,1.05000,0.95000,1.10000,0.90000
   113,'YANBU (SEC) ',  13.8000,2, 100,   1,   1,0.99877,  16.1046,1.05000,0.95000,1.10000,0.90000
   114,'JAMUM       ',  33.0000,1, 100,   1,   1,1.00640, -11.5271,1.05000,0.95000,1.10000,0.90000
   115,'JEDDAH_SOUTH',  13.8000,2, 100,   1,   1,0.99505,  17.1349,1.05000,0.95000,1.10000,0.90000
   116,'YNBU_(SWCC) ',  13.8000,2, 100,   1,   1,0.99877,  16.1046,1.05000,0.95000,1.10000,0.90000
   117,'JEDDAH_3    ',  13.8000,2, 100,   1,   1,1.01106,   9.0789,1.05000,0.95000,1.10000,0.90000
   118,'RABIGH      ',  33.0000,1, 100,   1,   1,1.00640,   7.5956,1.05000,0.95000,1.10000,0.90000
   119,'TAIF        ',  33.0000,1, 100,   1,   1,0.97884, -11.7316,1.05000,0.95000,1.10000,0.90000
   120,'RABIGH      ',  13.8000,2, 100,   1,   1,0.98396,  20.0975,1.05000,0.95000,1.10000,0.90000
   121,'THULE       ',  33.0000,1, 100,   1,   1,1.00640,   7.5956,1.05000,0.95000,1.10000,0.90000
   122,'LAITH       ',  33.0000,1, 100,   1,   1,0.97787,   1.5386,1.05000,0.95000,1.10000,0.90000
   123,'MADINAH     ',  13.8000,2, 100,   1,   1,1.02000,  21.3751,1.05000,0.95000,1.10000,0.90000
   124,'BAHRAH      ',  33.0000,1, 100,   1,   1,0.97158,  -1.7979,1.05000,0.95000,1.10000,0.90000
   125,'YANBU       ',  33.0000,1, 100,   1,   1,0.99391,   3.4100,1.05000,0.95000,1.10000,0.90000
   126,'QARN ALMANA ',  33.0000,1, 100,   1,   1,0.97977, -15.3887,1.05000,0.95000,1.10000,0.90000
   127,'JEDDAH      ',  33.0000,1, 100,   1,   1,1.00013,   5.6375,1.05000,0.95000,1.10000,0.90000
   128,'MAKKAH      ',  13.8000,2, 100,   1,   1,1.03948,   8.5639,1.05000,0.95000,1.10000,0.90000
   129,'DURAT ALAROU',  33.0000,1, 100,   1,   1,1.00101,   6.3863,1.05000,0.95000,1.10000,0.90000
   130,'MAKKAH      ',  33.0000,1, 100,   1,   1,1.03599,  -3.5219,1.05000,0.95000,1.10000,0.90000
   131,'JEDDAH(SWCC)',  13.8000,2, 100,   1,   1,1.02000,  19.9632,1.05000,0.95000,1.10000,0.90000
   132,'AL MUQAYTI  ',  33.0000,1, 100,   1,   1,1.00640,  -0.6819,1.05000,0.95000,1.10000,0.90000
   133,'OMLEJ       ',  33.0000,1, 100,   1,   1,0.99137,   1.5663,1.05000,0.95000,1.10000,0.90000
   134,'KAEC        ',  33.0000,1, 100,   1,   1,0.95971,  -2.9148,1.05000,0.95000,1.10000,0.90000
   135,'OMLEJ       ',  33.0000,1, 100,   1,   1,1.00454,   4.7359,1.05000,0.95000,1.10000,0.90000
   136,'NORTH JEEDH ',  33.0000,1, 100,   1,   1,0.98612,  -2.7564,1.05000,0.95000,1.10000,0.90000
   137,'OMLEJ       ',  13.8000,2, 100,   1,   1,1.00865,  16.8206,1.05000,0.95000,1.10000,0.90000
   138,'FATIMA VALLE',  33.0000,1, 100,   1,   1,0.97383,  -1.9120,1.05000,0.95000,1.10000,0.90000
   139,'SHAIBA      ',  33.0000,1, 100,   1,   1,0.99817,   4.7635,1.05000,0.95000,1.10000,0.90000
   140,'SHAIBA_1    ',  13.8000,2, 100,   1,   1,1.02000,  21.4649,1.05000,0.95000,1.10000,0.90000
   141,'SHAIBA      ',  13.8000,2, 100,   1,   1,1.02000,  19.1282,1.05000,0.95000,1.10000,0.90000
   142,'SHAIBA_2    ',  13.8000,2, 100,   1,   1,1.02000,  21.4649,1.05000,0.95000,1.10000,0.90000
   143,'MADINAH PP1 ',  13.8000,2, 100,   1,   1,1.02000,  22.0165,1.05000,0.95000,1.10000,0.90000
   144,'KAEC        ', 132.0000,1, 100,   1,   1,0.98778,   4.6808,1.05000,0.95000,1.10000,0.90000
   145,'NORTH JEEDH ', 132.0000,1, 100,   1,   1,1.00032,   4.5552,1.05000,0.95000,1.10000,0.90000
   146,'SOUTHJEEDH  ', 132.0000,1, 100,   1,   1,1.01000,  11.5477,1.05000,0.95000,1.10000,0.90000
   147,'AL-QUNFUDHAH',  33.0000,1, 100,   1,   1,1.02498,   9.7622,1.05000,0.95000,1.10000,0.90000
   148,'BAHRAH      ', 132.0000,1, 100,   1,   1,0.98624,   5.7302,1.05000,0.95000,1.10000,0.90000
   149,'JEEDH       ', 132.0000,1, 100,   1,   1,0.98841,   5.5820,1.05000,0.95000,1.10000,0.90000
   150,'JEDDAH(SWCC)', 132.0000,1, 100,   1,   1,1.01391,  12.7490,1.05000,0.95000,1.10000,0.90000
   151,'LAITH       ', 132.0000,1, 100,   1,   1,0.99232,   8.9719,1.05000,0.95000,1.10000,0.90000
   152,'DHAHBAN     ', 132.0000,1, 100,   1,   1,0.99396,   6.5127,1.05000,0.95000,1.10000,0.90000
   153,'ASEAL ALKABE', 132.0000,1, 100,   1,   1,0.98384,  -8.0665,1.05000,0.95000,1.10000,0.90000
   154,'MAAKAH      ', 132.0000,1, 100,   1,   1,1.02000,   6.3426,1.05000,0.95000,1.10000,0.90000
   155,'MADINAH     ', 132.0000,1, 100,   1,   1,1.00446,  13.5995,1.05000,0.95000,1.10000,0.90000
   156,'YANBU       ', 380.0000,1, 100,   1,   1,1.01027,  14.7801,1.05000,0.95000,1.10000,0.90000
   157,'RABIGH      ', 380.0000,1, 100,   1,   1,1.02000,  14.6201,1.05000,0.95000,1.10000,0.90000
   158,'OMLEJ       ', 380.0000,1, 100,   1,   1,1.00541,   8.8020,1.05000,0.95000,1.10000,0.90000
   159,'TAIF        ', 132.0000,1, 100,   1,   1,0.98478,  -8.3460,1.05000,0.95000,1.10000,0.90000
   160,'SHAIBA(SWCC)', 380.0000,1, 100,   1,   1,1.01200,  11.9025,1.05000,0.95000,1.10000,0.90000
   161,'SHAIBA      ', 380.0000,1, 100,   1,   1,1.01819,  11.7860,1.05000,0.95000,1.10000,0.90000
   162,'JEDDAH      ', 380.0000,1, 100,   1,   1,1.00787,  10.6093,1.05000,0.95000,1.10000,0.90000
   163,'RABIGH      ',  13.8000,2, 100,   1,   1,0.98039,  20.4719,1.05000,0.95000,1.10000,0.90000
   177,'RABIGH      ',  13.8000,2, 100,   1,   1,0.98039,  20.4719,1.05000,0.95000,1.10000,0.90000
   183,'TAIF        ', 380.0000,1, 100,   1,   1,1.03087,  -2.0492,1.05000,0.95000,1.10000,0.90000
   188,'197         ', 380.0000,1, 100,   1,   1,1.00499,   8.6856,1.05000,0.95000,1.10000,0.90000
   201,'GHAZLAN     ',  13.8000,2, 200,   1,   1,1.02000,  -1.7579,1.05000,0.95000,1.10000,0.90000
   202,'QURAYA SWING',  13.8000,3, 200,   1,   1,1.02000,   0.0000,1.05000,0.95000,1.10000,0.90000
   203,'FARAS       ',  13.5000,2, 200,   1,   1,1.00696,  -0.0446,1.05000,0.95000,1.10000,0.90000
   204,'JUBAIL(SWCC)',  13.8000,2, 200,   1,   1,1.02000,  -6.5483,1.05000,0.95000,1.10000,0.90000
   205,'RAS TANURA  ', 132.0000,1, 200,   1,   1,0.99581,  -5.8469,1.05000,0.95000,1.10000,0.90000
   206,'ARAMCO      ',  13.8000,2, 200,   1,   1,1.00000,  -8.2386,1.05000,0.95000,1.10000,0.90000
   207,'HAJJR       ',  13.8000,2, 200,   1,   1,1.01900,  -4.8405,1.05000,0.95000,1.10000,0.90000
   208,'SHEDGUM     ',  13.8000,2, 200,   1,   1,1.00000,  -7.8534,1.05000,0.95000,1.10000,0.90000
   209,'ARAMCO PP16 ',  13.8000,2, 200,   1,   1,1.00000,  -0.2792,1.05000,0.95000,1.10000,0.90000
   211,'QAISUMAH    ', 110.0000,1, 200,   1,   1,0.98546,  -7.0056,1.05000,0.95000,1.10000,0.90000
   212,'QAISUMAH    ',  13.5000,2, 200,   1,   1,1.02000,  -6.1923,1.05000,0.95000,1.10000,0.90000
   213,'MARAFIQ JUBA',  13.8000,2, 200,   1,   1,1.02000,   0.6598,1.05000,0.95000,1.10000,0.90000
   214,'JUBAIL      ', 132.0000,1, 200,   1,   1,0.99447,  -5.6853,1.05000,0.95000,1.10000,0.90000
   215,'KHURSANIYAH ', 110.0000,1, 200,   1,   1,0.98666,  -6.5463,1.05000,0.95000,1.10000,0.90000
   216,'ARAMCO  PP10',  13.8000,2, 200,   1,   1,1.02000,  -2.0563,1.05000,0.95000,1.10000,0.90000
   217,'QATIF_1     ', 132.0000,1, 200,   1,   1,0.99439,  -5.8769,1.05000,0.95000,1.10000,0.90000
   218,'JUBAIL(SWCC)', 230.0000,1, 200,   1,   1,0.99477,  -7.5394,1.05000,0.95000,1.10000,0.90000
   219,'ALFANATEER  ', 110.0000,1, 200,   1,   1,0.96447, -11.2314,1.05000,0.95000,1.10000,0.90000
   220,'JUYMAH      ',  13.8000,2, 200,   1,   1,1.02000,  -8.1432,1.05000,0.95000,1.10000,0.90000
   221,'DAMMAM      ', 132.0000,1, 200,   1,   1,0.99398,  -5.9817,1.05000,0.95000,1.10000,0.90000
   222,'SALWA       ', 110.0000,1, 200,   1,   1,0.96427, -11.6670,1.05000,0.95000,1.10000,0.90000
   223,'ALKHOBAR    ', 110.0000,1, 200,   1,   1,0.98422, -10.3926,1.05000,0.95000,1.10000,0.90000
   224,'ALNAIRYAH   ', 110.0000,1, 200,   1,   1,0.98024,  -6.7839,1.05000,0.95000,1.10000,0.90000
   225,'HAFAR ALBAT ', 110.0000,1, 200,   1,   1,0.98324,  -7.2958,1.05000,0.95000,1.10000,0.90000
   226,'ABQIQ       ', 230.0000,1, 200,   1,   1,0.97732, -12.3403,1.05000,0.95000,1.10000,0.90000
   227,'HASSA       ', 110.0000,1, 200,   1,   1,0.98235, -10.8772,1.05000,0.95000,1.10000,0.90000
   228,'AIN DAR     ', 110.0000,1, 200,   1,   1,0.98075, -11.1728,1.05000,0.95000,1.10000,0.90000
   229,' HAJJR      ', 110.0000,1, 200,   1,   1,0.98102, -11.1744,1.05000,0.95000,1.10000,0.90000
   230,'JUBAIL 2    ', 110.0000,1, 200,   1,   1,1.00086,  -5.3906,1.05000,0.95000,1.10000,0.90000
   231,'UTHMANIYAH  ', 110.0000,1, 200,   1,   1,0.98102, -11.1744,1.05000,0.95000,1.10000,0.90000
   232,'DHAHRAN     ', 110.0000,1, 200,   1,   1,0.98184, -11.0434,1.05000,0.95000,1.10000,0.90000
   233,'JUYMAH      ', 230.0000,1, 200,   1,   1,0.98796, -11.8970,1.05000,0.95000,1.10000,0.90000
   234,'RAS KHAIR   ',  13.8000,2, 200,   1,   1,1.01029,  -3.1875,1.05000,0.95000,1.10000,0.90000
   235,'SAFANIYAH   ', 230.0000,1, 200,   1,   1,0.98405,  -8.0037,1.05000,0.95000,1.10000,0.90000
   236,'RAS KHAIR   ', 230.0000,1, 200,   1,   1,0.98564,  -7.7100,1.05000,0.95000,1.10000,0.90000
   237,'QURAYA      ', 132.0000,1, 200,   1,   1,0.99512,  -5.6161,1.05000,0.95000,1.10000,0.90000
   238,'AL AZIZIYAH ', 110.0000,1, 200,   1,   1,0.98120, -11.1299,1.05000,0.95000,1.10000,0.90000
   239,'ALKHOBAR    ',  13.8000,2, 200,   1,   1,1.00692,  -5.8455,1.05000,0.95000,1.10000,0.90000
   293,'ABU HADRIYAH', 380.0000,1, 200,   1,   1,1.00285,  -7.2901,1.05000,0.95000,1.10000,0.90000
   294,'AL TUHAIMIYA', 380.0000,1, 200,   1,   1,1.01519,  -7.5245,1.05000,0.95000,1.10000,0.90000
   300,'PP4         ',  13.8000,2, 300,   1,   1,1.01845, -12.9568,1.05000,0.95000,1.10000,0.90000
   301,'QUWAIIYAH   ',  33.0000,1, 300,   1,   1,0.95088, -24.8827,1.05000,0.95000,1.10000,0.90000
   302,'ALKHARJ     ', 115.0000,1, 300,   1,   1,0.99964, -14.1455,1.05000,0.95000,1.10000,0.90000
   303,'PP8         ',  13.8000,2, 300,   1,   1,1.00390, -15.2559,1.05000,0.95000,1.10000,0.90000
   304,'BURAIDAH    ',  33.0000,1, 300,   1,   1,1.02000, -19.3158,1.05000,0.95000,1.10000,0.90000
   305,'WADIALDAWASI',  33.0000,1, 300,   1,   1,0.97839, -24.1461,1.05000,0.95000,1.10000,0.90000
   306,'HAIL 1      ',  13.8000,2, 300,   1,   1,1.00568, -18.1096,1.05000,0.95000,1.10000,0.90000
   307,'WADIALDAWASI',  13.8000,2, 300,   1,   1,1.02000, -20.7681,1.05000,0.95000,1.10000,0.90000
   308,'HAIL 2      ',  13.8000,2, 300,   1,   1,1.04758, -18.1096,1.05000,0.95000,1.10000,0.90000
   309,'PP9         ',  13.8000,2, 300,   1,   1,1.02000,  -5.3787,1.05000,0.95000,1.10000,0.90000
   311,'HARAD       ',  33.0000,1, 300,   1,   1,0.98406, -18.7230,1.05000,0.95000,1.10000,0.90000
   313,'HAIL        ', 380.0000,1, 300,   1,   1,1.01928, -21.2092,1.05000,0.95000,1.10000,0.90000
   314,'ALOYEYNAH   ',  33.0000,1, 300,   1,   1,0.95968, -24.9414,1.05000,0.95000,1.10000,0.90000
   315,'PP7         ',  13.8000,2, 300,   1,   1,1.02000, -12.9145,1.05000,0.95000,1.10000,0.90000
   316,'RIYADH      ',  33.0000,1, 300,   1,   1,0.97860, -16.0736,1.05000,0.95000,1.10000,0.90000
   317,'PP5         ',  13.8000,2, 300,   1,   1,1.02000, -12.6424,1.05000,0.95000,1.10000,0.90000
   318,'SADIR       ', 380.0000,1, 300,   1,   1,0.98136, -21.1051,1.05000,0.95000,1.10000,0.90000
   320,'ALTOMAMH    ', 380.0000,1, 300,   1,   1,0.97877, -21.0722,1.05000,0.95000,1.10000,0.90000
   321,'KAPSARC     ',  13.8000,2, 300,   1,   1,1.02000, -17.7802,1.05000,0.95000,1.10000,0.90000
   323,'MUZAHIMIYAH ',  33.0000,1, 300,   1,   1,0.95249, -24.8739,1.05000,0.95000,1.10000,0.90000
   324,'JUBBAH      ', 380.0000,4, 300,   1,   1,1.00000,   0.0000,1.05000,0.95000,1.10000,0.90000
   325,'INDUSTRIAL C',  33.0000,1, 300,   1,   1,0.97316, -21.1541,1.05000,0.95000,1.10000,0.90000
   326,'AL MAJMAAH  ',  33.0000,1, 300,   1,   1,0.99845, -22.7829,1.05000,0.95000,1.10000,0.90000
   327,'PP4         ',  13.8000,2, 300,   1,   1,1.02000,  -7.8779,1.05000,0.95000,1.10000,0.90000
   328,'ONAIZAH     ',  33.0000,1, 300,   1,   1,0.99679, -21.5783,1.05000,0.95000,1.10000,0.90000
   329,'SALBOUKH    ', 132.0000,1, 300,   1,   1,0.96731, -19.8112,1.05000,0.95000,1.10000,0.90000
   330,'PP12        ',  13.8000,2, 300,   1,   1,1.02000,   9.3859,1.05000,0.95000,1.10000,0.90000
   331,'PP12        ', 132.0000,1, 300,   1,   1,1.01852,   4.5033,1.05000,0.95000,1.10000,0.90000
   332,'BURAIDAH    ',  13.8000,2, 300,   1,   1,1.04417, -14.5534,1.05000,0.95000,1.10000,0.90000
   333,'RIYADH      ',  33.0000,1, 300,   1,   1,0.97595, -20.9324,1.05000,0.95000,1.10000,0.90000
   334,'HAIL        ',  33.0000,1, 300,   1,   1,1.02000, -21.2722,1.05000,0.95000,1.10000,0.90000
   335,'QASSIM CENTR',  13.8000,2, 300,   1,   1,1.02000, -18.2544,1.05000,0.95000,1.10000,0.90000
   336,'ALJANDREAH  ',  33.0000,1, 300,   1,   1,0.97108, -28.5594,1.05000,0.95000,1.10000,0.90000
   338,'KHURAIS     ', 380.0000,1, 300,   1,   1,0.98572, -17.0306,1.05000,0.95000,1.10000,0.90000
   339,'PP9         ', 380.0000,1, 300,   1,   1,1.00509, -11.2445,1.05000,0.95000,1.10000,0.90000
   340,'HARAD       ', 380.0000,1, 300,   1,   1,0.99451, -15.1976,1.05000,0.95000,1.10000,0.90000
   341,'RIYADH      ', 132.0000,1, 300,   1,   1,0.99327, -11.1747,1.05000,0.95000,1.10000,0.90000
   342,'WADIALDAWASI', 132.0000,1, 300,   1,   1,0.97692, -19.9495,1.05000,0.95000,1.10000,0.90000
   343,'ALTHOMMAMH  ',  33.0000,1, 300,   1,   1,1.00228, -25.6829,1.05000,0.95000,1.10000,0.90000
   344,'INDUSTRIAL C', 132.0000,1, 300,   1,   1,0.98639, -16.0441,1.05000,0.95000,1.10000,0.90000
   345,'RIYADH      ',  33.0000,1, 300,   1,   1,0.95614, -24.8541,1.05000,0.95000,1.10000,0.90000
   346,'KING KHALID ',  33.0000,1, 300,   1,   1,0.97736, -21.1702,1.05000,0.95000,1.10000,0.90000
   347,'RIYADH      ', 132.0000,1, 300,   1,   1,0.98824, -15.9951,1.05000,0.95000,1.10000,0.90000
   348,'ALBAKAREAH  ',  33.0000,1, 300,   1,   1,0.96073, -34.3833,1.05000,0.95000,1.10000,0.90000
   349,'RIYADH      ', 132.0000,1, 300,   1,   1,0.96751, -23.4399,1.05000,0.95000,1.10000,0.90000
   350,'RIYADH      ', 132.0000,1, 300,   1,   1,0.96777, -19.7074,1.05000,0.95000,1.10000,0.90000
   351,'ALKHARJ ROAD', 132.0000,1, 300,   1,   1,0.99684, -10.7072,1.05000,0.95000,1.10000,0.90000
   352,'PP10        ',  13.8000,2, 300,   1,   1,1.02000,  -6.2737,1.05000,0.95000,1.10000,0.90000
   353,'BURAIDAH    ', 380.0000,1, 300,   1,   1,1.01621, -21.1257,1.05000,0.95000,1.10000,0.90000
   354,'RIYADH      ',  13.8000,2, 300,   1,   1,1.02537, -19.3341,1.05000,0.95000,1.10000,0.90000
   397,'RIYADH      ', 380.0000,1, 300,   1,   1,1.03531,   2.0346,1.05000,0.95000,1.10000,0.90000
   398,'HAIL        ', 380.0000,1, 300,   1,   1,1.02831, -18.9093,1.05000,0.95000,1.10000,0.90000
   401,'ASIR        ',  33.0000,1, 400,   1,   1,1.00151,  12.7104,1.05000,0.95000,1.10000,0.90000
   402,'NAJRAN      ',  33.0000,1, 400,   1,   1,0.99272,  11.0477,1.05000,0.95000,1.10000,0.90000
   404,'ALBAHA      ', 132.0000,1, 400,   1,   1,0.99851,   7.9461,1.05000,0.95000,1.10000,0.90000
   405,'SAMTAH      ',  33.0000,1, 400,   1,   1,0.99783,  11.5383,1.05000,0.95000,1.10000,0.90000
   407,'TIHAMA      ',  13.8000,2, 400,   1,   1,1.02000,  14.2937,1.05000,0.95000,1.10000,0.90000
   408,'JAZAN       ',  33.0000,1, 400,   1,   1,1.00411,  13.2271,1.05000,0.95000,1.10000,0.90000
   409,'JAZAN       ',  33.0000,1, 400,   1,   1,0.99040,   5.8630,1.05000,0.95000,1.10000,0.90000
   410,'JAZAN       ',  33.0000,1, 400,   1,   1,0.98857,   9.4486,1.05000,0.95000,1.10000,0.90000
   411,'ASIR        ',  13.8000,2, 400,   1,   1,1.02000,  15.8636,1.05000,0.95000,1.10000,0.90000
   412,'JAZAN       ',  33.0000,1, 400,   1,   1,1.00917,  13.4854,1.05000,0.95000,1.10000,0.90000
   413,'SHUQIQ(SWCC)',  13.8000,2, 400,   1,   1,1.02000,  19.2390,1.05000,0.95000,1.10000,0.90000
   414,'NAJRAN      ', 132.0000,1, 400,   1,   1,0.99888,   8.0190,1.05000,0.95000,1.10000,0.90000
   415,'JAZAN       ',  13.8000,2, 400,   1,   1,1.02000,  14.1368,1.05000,0.95000,1.10000,0.90000
   416,'ALBAHA      ',  33.0000,1, 400,   1,   1,0.98153,   4.1673,1.05000,0.95000,1.10000,0.90000
   417,'ALBAHA      ',  13.8000,2, 400,   1,   1,1.02000,   9.7420,1.05000,0.95000,1.10000,0.90000
   418,'BISHA       ',  33.0000,1, 400,   1,   1,0.98212,   5.5474,1.05000,0.95000,1.10000,0.90000
   419,'SHAROURA    ',  13.8000,2, 400,   1,   1,1.02000,   8.7989,1.05000,0.95000,1.10000,0.90000
   420,'NAJRAN      ',  33.0000,1, 400,   1,   1,0.98185,   4.2379,1.05000,0.95000,1.10000,0.90000
   421,'BISHA       ',  13.8000,2, 400,   1,   1,1.02000,  10.4439,1.05000,0.95000,1.10000,0.90000
   422,'ABHA        ', 132.0000,1, 400,   1,   1,1.00952,  14.7479,1.05000,0.95000,1.10000,0.90000
   423,'SHUQIQ(SWCC)', 132.0000,1, 400,   1,   1,1.01187,  15.4072,1.05000,0.95000,1.10000,0.90000
   424,'ABHA        ', 132.0000,1, 400,   1,   1,1.01108,  15.1210,1.05000,0.95000,1.10000,0.90000
   425,'ABHA        ', 132.0000,1, 400,   1,   1,0.99915,   9.3264,1.05000,0.95000,1.10000,0.90000
   426,'ABHA        ',  66.0000,1, 400,   1,   1,1.00546,  13.1793,1.05000,0.95000,1.10000,0.90000
   427,'ABHA        ', 132.0000,1, 400,   1,   1,1.01037,  14.8973,1.05000,0.95000,1.10000,0.90000
   428,'ABHA        ', 132.0000,1, 400,   1,   1,0.99856,   7.9508,1.05000,0.95000,1.10000,0.90000
   443,'JEZAN       ',  13.8000,2, 400,   1,   1,1.02545,  15.6928,1.05000,0.95000,1.10000,0.90000
   497,'ABHA        ', 380.0000,1, 400,   1,   1,1.00726,   8.3026,1.05000,0.95000,1.10000,0.90000
   498,'ABHA        ', 380.0000,1, 400,   1,   1,1.00121,   8.3252,1.05000,0.95000,1.10000,0.90000
   500,'RAFHA       ', 132.0000,1, 500,   1,   1,1.01169,   0.7230,1.05000,0.95000,1.10000,0.90000
   501,'HAQL        ', 132.0000,1, 500,   1,   1,0.97055, -18.3708,1.05000,0.95000,1.10000,0.90000
   503,'TABUK - 1   ', 132.0000,1, 500,   1,   1,0.97163, -18.1593,1.05000,0.95000,1.10000,0.90000
   505,'TURAIF      ',  33.0000,1, 500,   1,   1,1.02662,  -0.9225,1.05000,0.95000,1.10000,0.90000
   506,'SHARMA TABUK', 132.0000,1, 500,   1,   1,0.96810, -22.1927,1.05000,0.95000,1.10000,0.90000
   507,'JOUF        ', 132.0000,1, 500,   1,   1,1.02000,  -5.2338,1.05000,0.95000,1.10000,0.90000
   508,'QURYAAT     ', 132.0000,1, 500,   1,   1,1.02512,   0.0357,1.05000,0.95000,1.10000,0.90000
   509,'TURAIF      ',  13.8000,2, 500,   1,   1,1.01171,   3.2139,1.05000,0.95000,1.10000,0.90000
   511,'ARAR        ',  13.8000,2, 500,   1,   1,1.02000,   4.5873,1.05000,0.95000,1.10000,0.90000
   512,'WAJH        ', 132.0000,1, 500,   1,   1,1.02000,  -2.9644,1.05000,0.95000,1.10000,0.90000
   513,'JOUF        ',  13.8000,2, 500,   1,   1,1.02000,   3.4370,1.05000,0.95000,1.10000,0.90000
   514,'TURAIF      ', 132.0000,1, 500,   1,   1,1.03000,  -0.0798,1.05000,0.95000,1.10000,0.90000
   515,'TABUK - 1   ',  33.0000,1, 500,   1,   1,0.96062, -20.8702,1.05000,0.95000,1.10000,0.90000
   516,'TABARJL     ',  33.0000,1, 500,   1,   1,1.02602,  -1.1312,1.05000,0.95000,1.10000,0.90000
   517,'ALULA       ',  33.0000,1, 500,   1,   1,0.96034, -20.9327,1.05000,0.95000,1.10000,0.90000
   518,'QURYAAT     ',  33.0000,1, 500,   1,   1,1.01039,  -3.3240,1.05000,0.95000,1.10000,0.90000
   519,'TABUK_3     ', 132.0000,1, 500,   1,   1,1.02709, -13.1299,1.05000,0.95000,1.10000,0.90000
   520,'QURYAAT     ',  13.8000,2, 500,   1,   1,1.02000,   3.3181,1.05000,0.95000,1.10000,0.90000
   521,'RAFHA       ',  13.8000,2, 500,   1,   1,1.02000,   3.2169,1.05000,0.95000,1.10000,0.90000
   522,'ARAR        ', 132.0000,1, 500,   1,   1,1.01296,  -2.9205,1.05000,0.95000,1.10000,0.90000
   523,'RAFHA       ',  33.0000,1, 500,   1,   1,0.99485,  -3.1066,1.05000,0.95000,1.10000,0.90000
   524,'TABARJL     ', 132.0000,1, 500,   1,   1,1.03100,   0.0916,1.05000,0.95000,1.10000,0.90000
   525,'JOUF        ',  13.8000,2, 500,   1,   1,1.01613,  -4.1864,1.05000,0.95000,1.10000,0.90000
   526,'JOUF        ',  33.0000,1, 500,   1,   1,1.00731,  -7.4156,1.05000,0.95000,1.10000,0.90000
   527,'DUBA        ', 132.0000,1, 500,   1,   1,0.97257, -18.2304,1.05000,0.95000,1.10000,0.90000
   528,'DUMAT AL-JAN',  33.0000,1, 500,   1,   1,0.99237,  -7.1167,1.05000,0.95000,1.10000,0.90000
   529,'WAJH        ',  13.8000,2, 500,   1,   1,1.04474,   1.2857,1.05000,0.95000,1.10000,0.90000
   530,'WAJH        ',  33.0000,1, 500,   1,   1,0.98982,  -9.2401,1.05000,0.95000,1.10000,0.90000
   531,'ARAR        ',  33.0000,1, 500,   1,   1,1.00223,  -5.4694,1.05000,0.95000,1.10000,0.90000
   532,'DUBA        ',  13.8000,2, 500,   1,   1,1.02000, -13.0364,1.05000,0.95000,1.10000,0.90000
   533,'DUBA        ',  33.0000,1, 500,   1,   1,0.96267, -20.6871,1.05000,0.95000,1.10000,0.90000
   534,'SHARMA TABUK',  33.0000,1, 500,   1,   1,0.98531, -23.0442,1.05000,0.95000,1.10000,0.90000
   535,'NEOM        ',  33.0000,1, 500,   1,   1,0.96963, -22.1077,1.05000,0.95000,1.10000,0.90000
   536,'TAYMA       ',  33.0000,1, 500,   1,   1,0.96842, -22.8279,1.05000,0.95000,1.10000,0.90000
   538,'TABOUK_1    ',  13.8000,2, 500,   1,   1,1.02000, -12.6209,1.05000,0.95000,1.10000,0.90000
   539,'HAQL        ',  33.0000,1, 500,   1,   1,0.96030, -20.9128,1.05000,0.95000,1.10000,0.90000
   597,'TABUK       ', 380.0000,1, 500,   1,   1,1.02428,  -9.7702,1.05000,0.95000,1.10000,0.90000
   598,'DUMAT AL-JAN', 380.0000,1, 500,   1,   1,1.01619,  -7.8881,1.05000,0.95000,1.10000,0.90000
0 / END OF BUS DATA, BEGIN LOAD DATA
@!   I,'ID',STAT,AREA,ZONE,      PL,        QL,        IP,        IQ,        YP,        YQ, OWNER,SCALE,INTRPT,  DGENP,     DGENQ, DGENF
   102,'1 ',   1, 100,   1,   527.726,    22.511,     0.000,     0.000,     0.000,     0.000,   1,    1,  0,     0.000,     0.000,   0
   103,'1 ',   1, 100,   1,   211.090,    10.554,     0.000,     0.000,     0.000,     0.000,   1,    1,  0,     0.000,     0.000,   0
   105,'1 ',   1, 100,   1,   772.960,    22.511,     0.000,     0.000,     0.000,     0.000,   1,    1,  0,     0.000,     0.000,   0
   106,'1 ',   1, 100,   1,   772.960,    22.511,     0.000,     0.000,     0.000,     0.000,   1,    1,  0,     0.000,     0.000,   0
   108,'1 ',   1, 100,   1,   772.960,    22.511,     0.000,     0.000,     0.000,     0.000,   1,    1,  0,     0.000,     0.000,   0
   109,'1 ',   1, 100,   1,   772.960,    22.511,     0.000,     0.000,     0.000,     0.000,   1,    1,  0,     0.000,     0.000,   0
   114,'1 ',   1, 100,   1,   772.960,    22.511,     0.000,     0.000,     0.000,     0.000,   1,    1,  0,     0.000,     0.000,   0
   118,'1 ',   1, 100,   1,   772.960,    22.511,     0.000,     0.000,     0.000,     0.000,   1,    1,  0,     0.000,     0.000,   0
   119,'1 ',   1, 100,   1,   474.952,    22.511,     0.000,     0.000,     0.000,     0.000,   1,    1,  0,     0.000,     0.000,   0
   121,'1 ',   1, 100,   1,   772.960,    22.511,     0.000,     0.000,     0.000,     0.000,   1,    1,  0,     0.000,     0.000,   0
   122,'1 ',   1, 100,   1,   772.960,    22.511,     0.000,     0.000,     0.000,     0.000,   1,    1,  0,     0.000,     0.000,   0
   124,'1 ',   1, 100,   1,   772.960,    22.511,     0.000,     0.000,     0.000,     0.000,   1,    1,  0,     0.000,     0.000,   0
   125,'1 ',   1, 100,   1,   772.960,    22.511,     0.000,     0.000,     0.000,     0.000,   1,    1,  0,     0.000,     0.000,   0
   126,'1 ',   1, 100,   1,   772.960,   100.297,     0.000,     0.000,     0.000,     0.000,   1,    1,  0,     0.000,     0.000,   0
   127,'1 ',   1, 100,   1,   772.960,    22.511,     0.000,     0.000,     0.000,     0.000,   1,    1,  0,     0.000,     0.000,   0
   129,'1 ',   1, 100,   1,   457.494,    16.956,     0.000,     0.000,     0.000,     0.000,   1,    1,  0,     0.000,     0.000,   0
   130,'1 ',   1, 100,   1,   401.190,    30.089,     0.000,     0.000,     0.000,     0.000,   1,    1,  0,     0.000,     0.000,   0
   132,'1 ',   1, 100,   1,   772.960,    22.511,     0.000,     0.000,     0.000,     0.000,   1,    1,  0,     0.000,     0.000,   0
   133,'1 ',   1, 100,   1,   772.960,    22.511,     0.000,     0.000,     0.000,     0.000,   1,    1,  0,     0.000,     0.000,   0
   134,'1 ',   1, 100,   1,   772.960,   100.297,     0.000,     0.000,     0.000,     0.000,   1,    1,  0,     0.000,     0.000,   0
   135,'1 ',   1, 100,   1,   772.960,    22.511,     0.000,     0.000,     0.000,     0.000,   1,    1,  0,     0.000,     0.000,   0
   136,'1 ',   1, 100,   1,   772.960,    22.511,     0.000,     0.000,     0.000,     0.000,   1,    1,  0,     0.000,     0.000,   0
   138,'1 ',   1, 100,   1,   772.960,    22.511,     0.000,     0.000,     0.000,     0.000,   1,    1,  0,     0.000,     0.000,   0
   139,'1 ',   1, 100,   1,   772.960,    22.511,     0.000,     0.000,     0.000,     0.000,   1,    1,  0,     0.000,     0.000,   0
   147,'1 ',   1, 100,   1,   772.960,    22.511,     0.000,     0.000,     0.000,     0.000,   1,    1,  0,     0.000,     0.000,   0
   205,'1 ',   1, 200,   1,   661.552,   189.577,     0.000,     0.000,     0.000,     0.000,   1,    1,  0,     0.000,     0.000,   0
   211,'1 ',   1, 200,   1,   661.552,   189.710,     0.000,     0.000,     0.000,     0.000,   1,    1,  0,     0.000,     0.000,   0
   214,'1 ',   1, 200,   1,   661.552,   189.710,     0.000,     0.000,     0.000,     0.000,   1,    1,  0,     0.000,     0.000,   0
   215,'1 ',   1, 200,   1,   661.552,   189.710,     0.000,     0.000,     0.000,     0.000,   1,    1,  0,     0.000,     0.000,   0
   217,'1 ',   1, 200,   1,   661.552,   189.710,     0.000,     0.000,     0.000,     0.000,   1,    1,  0,     0.000,     0.000,   0
   218,'1 ',   1, 200,   1,   661.552,   189.710,     0.000,     0.000,     0.000,     0.000,   1,    1,  0,     0.000,     0.000,   0
   219,'1 ',   1, 200,   1,   661.552,   189.710,     0.000,     0.000,     0.000,     0.000,   1,    1,  0,     0.000,     0.000,   0
   221,'1 ',   1, 200,   1,   921.500,   189.577,     0.000,     0.000,     0.000,     0.000,   1,    1,  0,     0.000,     0.000,   0
   222,'1 ',   1, 200,   1,   921.500,   189.710,     0.000,     0.000,     0.000,     0.000,   1,    1,  0,     0.000,     0.000,   0
   223,'1 ',   1, 200,   1,   921.500,   189.710,     0.000,     0.000,     0.000,     0.000,   1,    1,  0,     0.000,     0.000,   0
   224,'1 ',   1, 200,   1,   921.500,   189.710,     0.000,     0.000,     0.000,     0.000,   1,    1,  0,     0.000,     0.000,   0
   225,'1 ',   1, 200,   1,   921.500,   300.892,     0.000,     0.000,     0.000,     0.000,   1,    1,  0,     0.000,     0.000,   0
   226,'1 ',   1, 200,   1,   921.500,   189.710,     0.000,     0.000,     0.000,     0.000,   1,    1,  0,     0.000,     0.000,   0
   227,'1 ',   1, 200,   1,   921.500,   189.710,     0.000,     0.000,     0.000,     0.000,   1,    1,  0,     0.000,     0.000,   0
   228,'1 ',   1, 200,   1,   921.500,   189.710,     0.000,     0.000,     0.000,     0.000,   1,    1,  0,     0.000,     0.000,   0
   229,'1 ',   1, 200,   1,   921.500,   189.710,     0.000,     0.000,     0.000,     0.000,   1,    1,  0,     0.000,     0.000,   0
   230,'1 ',   1, 200,   1,   921.500,   189.710,     0.000,     0.000,     0.000,     0.000,   1,    1,  0,     0.000,     0.000,   0
   230,'2 ',   1, 200,   1,   921.500,   189.710,     0.000,     0.000,     0.000,     0.000,   1,    1,  0,     0.000,     0.000,   0